/*--------------------------------*- C++ -*----------------------------------*\
| =========                 |                                                 |
| \\      /  F ield         | OpenFOAM: The Open Source CFD Toolbox           |
|  \\    /   O peration     | Version:  v2406                                 |
|   \\  /    A nd           | Website:  www.openfoam.com                      |
|    \\/     M anipulation  |                                                 |
\*---------------------------------------------------------------------------*/
FoamFile
{
    version     2.0;
    format      ascii;
    class       dictionary;
    object      blockMeshDict;
}
// * * * * * * * * * * * * * * * * * * * * * * * * * * * * * * * * * * * * * //

scale   1;

vertices
(
    (-3.0 -3.0 -2.0)
    ( 6.0 -3.0 -2.0)
    ( 6.0  3.0 -2.0)
    (-3.0  3.0 -2.0)
    (-3.0 -3.0  4.0)
    ( 6.0 -3.0  4.0)
    ( 6.0  3.0  4.0)
    (-3.0  3.0  4.0)
);

blocks
(
    hex (0 1 2 3 4 5 6 7) (90 60 60) simpleGrading (1 1 1)
);

edges
(
);

boundary
(
    inlet
    {
        type patch;
        faces
        (
            (0 3 7 4)
        );
    }
    outlet
    {
        type patch;
        faces
        (
            (1 5 6 2)
        );
    }
    farfield
    {
        type patch;
        faces
        (
            (0 1 5 4)
            (3 2 6 7)
            (0 1 2 3)
            (4 5 6 7)
        );
    }
);

// ************************************************************************* //
